<nodes>
    <node id="1" x="0" y="0" type="priority"/>
    <node id="2" x="100" y="0" type="priority"/>
    <node id="3" x="50" y="50" type="priority"/>
</nodes>
