<?xml version="1.0" encoding="UTF-8"?>

<!-- generated on 2025-02-06 19:52:49 by Eclipse SUMO netconvert Version 1.20.0
<configuration xmlns:xsi="http://www.w3.org/2001/XMLSchema-instance" xsi:noNamespaceSchemaLocation="http://sumo.dlr.de/xsd/netconvertConfiguration.xsd">

    <input>
        <node-files value="maps/city1.nod.xml"/>
        <edge-files value="maps/city1.edg.xml"/>
    </input>

    <output>
        <output-file value="maps/city1.net.xml"/>
    </output>

</configuration>
-->

<net version="1.20" junctionCornerDetail="5" limitTurnSpeed="5.50" xmlns:xsi="http://www.w3.org/2001/XMLSchema-instance" xsi:noNamespaceSchemaLocation="http://sumo.dlr.de/xsd/net_file.xsd">

    <location netOffset="0.00,0.00" convBoundary="0.00,0.00,100.00,50.00" origBoundary="0.00,0.00,100.00,50.00" projParameter="!"/>

    <edge id=":2_0" function="internal">
        <lane id=":2_0_0" index="0" speed="4.12" length="4.78" shape="100.00,-1.60 101.52,-1.43 102.21,-0.92 102.08,-0.06 101.13,1.13"/>
    </edge>

    <edge id="E1" from="1" to="2" priority="-1">
        <lane id="E1_0" index="0" speed="10.00" length="100.00" shape="0.00,-1.60 100.00,-1.60"/>
    </edge>
    <edge id="E2" from="2" to="3" priority="-1">
        <lane id="E2_0" index="0" speed="10.00" length="70.71" shape="101.13,1.13 51.13,51.13"/>
    </edge>

    <junction id="1" type="dead_end" x="0.00" y="0.00" incLanes="" intLanes="" shape="-0.00,0.00 -0.00,-3.20"/>
    <junction id="2" type="priority" x="100.00" y="0.00" incLanes="E1_0" intLanes=":2_0_0" shape="100.00,-3.20 100.00,0.00 102.26,2.26 103.72,0.59 104.44,-0.77 104.43,-1.83 103.68,-2.59 102.21,-3.05">
        <request index="0" response="0" foes="0" cont="0"/>
    </junction>
    <junction id="3" type="dead_end" x="50.00" y="50.00" incLanes="E2_0" intLanes="" shape="52.26,52.26 50.00,50.00"/>

    <connection from="E1" to="E2" fromLane="0" toLane="0" via=":2_0_0" dir="l" state="M"/>

    <connection from=":2_0" to="E2" fromLane="0" toLane="0" dir="l" state="M"/>

</net>
